28

C 1.000071 -0.550866 0.094171
C 1.736006 -0.316831 -1.068396
C 1.614392 -0.375983 1.342112
C 3.072324 0.088148 -1.002164
H 1.279484 -0.449591 -2.045242
C 2.942171 0.026567 1.421839
H 1.060451 -0.556142 2.259057
C 3.680890 0.261513 0.249127
H 3.620504 0.262314 -1.920581
H 3.429587 0.164134 2.382220
O 4.970121 0.649084 0.432622
C 5.777530 0.896285 -0.718069
H 5.366132 1.710937 -1.325381
H 6.757008 1.186477 -0.336083
H 5.877903 -0.004684 -1.334489
C -1.908700 0.682704 -0.011369
C -3.291324 0.744396 -0.088152
C -1.091096 1.799262 0.071671
C -3.884525 2.011368 -0.081630
H -3.843735 -0.188215 -0.148396
C -1.708657 3.056224 0.077169
H -0.012588 1.718514 0.130933
C -3.098681 3.163329 0.000499
H -4.966571 2.091094 -0.141113
H -1.091341 3.947711 0.141840
H -3.567514 4.143100 0.005103
I -1.023428 -1.328979 -0.028724
F -3.163446 -1.966572 -0.147480
