28

C -0.914376 0.272027 0.000054
C -2.093531 0.996568 0.000109
C -0.885061 -1.117869 0.000020
C -3.308293 0.303150 0.000110
H -2.029103 2.080081 0.000153
C -2.098496 -1.800577 0.000020
H 0.043628 -1.675064 0.000019
C -3.315265 -1.098506 0.000054
H -4.232900 0.868582 0.000134
H -2.118568 -2.885878 -0.000026
O -4.437676 -1.866899 0.000001
C -5.706101 -1.214152 0.000031
H -5.835381 -0.594427 -0.895143
H -6.450419 -2.011429 0.000194
H -5.835262 -0.594208 0.895072
C 2.170881 -0.378334 -0.000043
C 2.602632 -0.925162 1.211969
C 2.602321 -0.925542 -1.211993
C 3.467376 -2.023529 1.210283
H 2.273177 -0.500561 2.156050
C 3.467056 -2.023911 -1.210181
H 2.272619 -0.501212 -2.156109
C 3.898786 -2.572601 0.000083
H 3.802626 -2.447607 2.152806
H 3.802053 -2.448306 -2.152651
H 4.571668 -3.425510 0.000117
I 0.943421 1.427401 -0.000066
F -0.454624 3.163232 -0.000025
